test/fixtures/powermodels/case5/sol_ac_opf.json
{
  "termination_status": "LOCALLY_SOLVED",
  "objective": 18269.102722788884,
  "solution": {
    "baseMVA": 100.0,
    "branch": {
      "4": {
        "qf": -1.2180411270132174,
        "qt": 1.231655575151336,
        "pt": 0.8889096814416181,
        "pf": -0.8859838631174988
      },
      "1": {
        "qf": -0.08478830419757968,
        "qt": 0.23194112701321754,
        "pt": -2.1140161368825012,
        "pf": 2.1293238159030072
      },
      "5": {
        "qf": -0.48972198470052525,
        "qt": 0.49643598267175015,
        "pt": 0.28282343994569187,
        "pf": -0.28161653650393936
      },
      "2": {
        "qf": 0.26058507027894046,
        "qt": -0.12483421555268504,
        "pt": -1.9355087575527683,
        "pf": 1.94962456435241
      },
      "6": {
        "qf": 2.1719664285531914,
        "qt": -2.014298883541114,
        "pt": 0.03177793274879097,
        "pf": -0.0154207854793778
      },
      "7": {
        "qf": 0.20136694366486763,
        "qt": 0.0022094540712163306,
        "pt": 2.3999989949650704,
        "pf": -2.379092624926571
      },
      "3": {
        "qf": 1.3992032518009705,
        "qt": -1.3796380720699442,
        "pt": 1.9834866509190883,
        "pf": -1.9789483545056592
      }
    },
    "gen": {
      "4": {
        "qg": -0.1266301727571814,
        "pg": -9.784857086746372e-9,
        "pg_cost": -3.9139428346985485e-5
      },
      "1": {
        "qg": 0.3000000075661657,
        "pg": 0.4000000095538324,
        "pg_cost": 560.0000133753654
      },
      "5": {
        "qg": -1.3774286179987278,
        "pg": 4.383485645884159,
        "pg_cost": 4383.485645884159
      },
      "2": {
        "qg": 1.2750000103161656,
        "pg": 1.7000000161959257,
        "pg_cost": 2550.0000242938886
      },
      "3": {
        "qg": 3.9000000190040023,
        "pg": 3.5918723594583004,
        "pg_cost": 10775.617078374902
      }
    },
    "multiinfrastructure": false,
    "multinetwork": false,
    "bus": {
      "4": {
        "va": -6.20113307216862e-40,
        "vm": 0.8999999901096176
      },
      "1": {
        "va": 0.07121686480985182,
        "vm": 0.9129785797882439
      },
      "10": {
        "va": 0.0876476765106118,
        "vm": 0.9045881579921853
      },
      "2": {
        "va": -0.001036760078100853,
        "vm": 0.9113209623364952
      },
      "3": {
        "va": 0.008745176686772946,
        "vm": 0.9267590537335777
      }
    },
    "per_unit": true
  }
}

